data_symmetry_test_structure_cartn_PM
_symmetry_space_group_name_H-M	'R -3'
_cell_length_a	25.517700
_cell_length_b	25.517700
_cell_length_c	6.966100
_cell_angle_alpha	90.000000
_cell_angle_beta	90.000000
_cell_angle_gamma	120.000000
_symmetry_Int_Tables_number 1

loop_
_symmetry_equiv_pos_as_xyz
'x,y,z'
'-y,x-y,z'
'-x+y,-x,z'
'-x,-y,-z'
'y,-x+y,-z'
'x-y,x,-z'
'2/3+x,1/3+y,1/3+z'
'2/3-y,1/3+x-y,1/3+z'
'2/3-x+y,1/3-x,1/3+z'
'2/3-x,1/3-y,1/3-z'
'2/3+y,1/3-x+y,1/3-z'
'2/3+x-y,1/3+x,1/3-z'
'1/3+x,2/3+y,2/3+z'
'1/3-y,2/3+x-y,2/3+z'
'1/3-x+y,2/3-x,2/3+z'
'1/3-x,2/3-y,2/3-z'
'1/3+y,2/3-x+y,2/3-z'
'1/3+x-y,2/3+x,2/3-z'

loop_
_atom_site_label
_atom_site_type_symbol
_atom_site_Cartn_x
_atom_site_Cartn_y
_atom_site_Cartn_z
Fe1	Fe	5.420470	7.792540	1.028890
O1	O	4.354590	6.521410	2.438140
O2	O	4.871330	5.122540	4.105820
O3	O	5.527130	6.094900	0.006270
C1	C	4.961920	5.500430	2.886750
C2	C	5.717240	4.576700	1.936580
C3	C	5.950730	4.914810	0.584460
C4	C	6.657570	3.991080	6.773140
H1	H	6.801740	4.112620	5.743550
O4	O	5.719790	14.804100	4.719530
O5	O	5.301300	13.959920	5.541530
O6	O	4.492390	14.910180	1.720630
O7	O	4.269110	16.008500	2.150440
O8	O	-0.232210	3.009880	6.736220
O9	O	-0.267940	4.044110	6.123200
